%chk=1.chk
%nprocshared=10
%mem=20GB
#P b3lyp/sto-3g opt scf=(xqc,maxcon=128,maxcyc=128) 

9

2 1
   H      0          -10.819  -12.957  -19.446
   H      0          -10.266  -13.129  -18.986
   C     -1          -12.528  -10.728  -19.062
   H      0          -11.547  -11.117  -19.333
   H      0          -13.079  -10.471  -19.967
   H      0          -12.408   -9.838  -18.444
   H      0          -13.078  -11.486  -18.505
   C     -1          -10.901    0.687  -17.567
   C     -1          -10.799    1.453  -18.880
   O     -1          -11.569    2.383  -19.134
   H      0          -10.449   -0.298  -17.684
   H      0          -10.379    1.236  -16.784
   H      0          -11.950    0.575  -17.293
   N     -1           -9.860    1.037  -19.719
   H      0           -9.742    1.494  -20.612
   H      0           -9.262    0.263  -19.465
   C     -1           -4.605   -6.139  -12.908
   C     -1           -5.772   -6.876  -12.259
   H      0           -4.874   -5.856  -13.926
   H      0           -3.732   -6.791  -12.932
   H      0           -4.374   -5.244  -12.331
   H      0           -6.643   -6.824  -12.913
   H      0           -5.500   -7.919  -12.100
   H      0           -6.009   -6.412  -11.302
   C     -1           -5.940   -6.796  -22.137
   H      0           -5.255   -5.958  -22.264
   H      0           -6.175   -7.225  -23.111
   H      0           -5.474   -7.555  -21.508
   H      0           -6.857   -6.446  -21.663
   H      0           -0.830  -10.494  -14.387
   H      0           -0.548  -10.612  -13.713
   O     -1           -5.179  -10.868  -13.937
   N     -1           -9.436   -7.062  -12.623
   C     -1          -10.413   -7.764  -13.503
   C     -1          -10.999   -9.000  -12.829
   O     -1          -10.325   -9.744  -12.109
   C     -1           -9.747   -8.222  -14.800
   C     -1           -8.997   -7.141  -15.564
   S     -1           -8.416   -7.793  -17.147
   C     -1           -7.044   -8.840  -16.583
   C     -1           -7.344   -6.494  -17.854
   C     -1           -8.113   -5.220  -18.168
   O     -1           -7.308   -4.061  -18.074
   C     -1           -8.715   -5.258  -19.571
   O     -1          -10.114   -5.088  -19.415
   C     -1           -8.002   -4.128  -20.312
   O     -1           -8.822   -3.498  -21.252
   C     -1           -7.619   -3.196  -19.162
   O     -1          -12.176   -9.300  -13.006
   N     -1           -5.808    1.534  -18.182
   C     -1           -7.031    0.987  -17.825
   N     -1           -7.317   -0.302  -18.197
   C     -1           -6.423   -1.018  -18.906
   C     -1           -5.202   -0.487  -19.289
   C     -1           -4.898    0.815  -18.920
   N     -1           -3.738    1.365  -19.259
   N     -1           -4.531   -1.437  -19.974
   C     -1           -5.302   -2.543  -20.047
   N     -1           -6.477   -2.290  -19.395
   H      0           -3.164    0.913  -19.713
   H      0           -3.560    2.173  -19.025
   H      0          -11.119   -7.125  -13.687
   H      0          -10.428   -8.595  -15.382
   H      0           -9.128   -8.939  -14.592
   H      0           -8.244   -6.827  -15.039
   H      0           -9.577   -6.378  -15.713
   H      0           -7.250   -9.199  -15.706
   H      0           -6.232   -8.311  -16.533
   H      0           -6.916   -9.570  -17.208
   H      0           -9.415   -3.056  -20.855
   H      0          -10.265   -4.377  -18.994
   H      0           -7.675    1.508  -17.320
   H      0           -5.063   -3.374  -20.486
   H      0           -9.156   -7.677  -11.872
   H      0           -8.363   -2.591  -19.015
   H      0           -9.865   -6.233  -12.238
   H      0           -8.624   -6.800  -13.164
   H      0           -7.248   -4.429  -20.842
   H      0           -8.598   -6.078  -20.075
   H      0           -8.816   -5.176  -17.501
   H      0           -6.928   -6.826  -18.665
   H      0           -6.629   -6.292  -17.230
   C     -1           -4.540  -12.555  -16.207
   O     -1           -4.979  -12.746  -14.930
   C     -1           -4.419  -11.187  -16.751
   O     -1           -4.730  -10.119  -15.972
   C     -1           -3.946  -11.022  -18.139
   C     -1           -3.639  -12.157  -18.876
   C     -1           -3.773  -13.433  -18.328
   C     -1           -4.211  -13.629  -17.016
   H      0           -3.830  -10.029  -18.573
   H      0           -3.507  -14.296  -18.939
   H      0           -4.295  -14.642  -16.624
   H      0           -4.661  -13.592  -14.605
   H      0           -3.287  -12.050  -19.902

